Circuit: * Z:\home\max\git\knightrider\LTSpiceFiles\Draft1.asc

Limiting rise time of source v1 to 3.9968e-016
Limiting fall time of source v1 to 3.9968e-016
Direct Newton iteration failed to find .op point.  (Use ".option noopiter" to skip.)
Starting Gmin stepping
Gmin = 10
Gmin = 1.07374
Gmin = 0.115292
Gmin = 0.0123794
Gmin = 0.00132923
Gmin = 0.000142725
Gmin = 1.5325e-005
Gmin = 1.6455e-006
Gmin = 1.76685e-007
Gmin = 1.89714e-008
Gmin = 2.03704e-009
Gmin = 2.18725e-010
Gmin = 2.34854e-011
Gmin = 2.52173e-012
Gmin = 2.70769e-013
Gmin = 0
Gmin stepping succeeded in finding the operating point.

Heightened Def Con from 3.06094 to 3.06094

Date: Wed May 25 14:42:17 2016
Total elapsed time: 9.825 seconds.

tnom = 27
temp = 27
method = modified trap
totiter = 536490
traniter = 536001
tranpoints = 146942
accept = 101866
rejected = 45077
matrix size = 24
fillins = 21
solver = Normal
Matrix Compiler1: 3.32 KB object code size  1.3/0.6/[0.5]
Matrix Compiler2: off  [0.5]/0.6/0.7


